data_image0
_chemical_formula_structural       CH2CH2CH2CH2CH2CH2
_chemical_formula_sum              "C6 H12"
_cell_length_a       2.70985
_cell_length_b       13.2693
_cell_length_c       11.4323
_cell_angle_alpha    99.1936
_cell_angle_beta     101.726
_cell_angle_gamma    89.729

_space_group_name_H-M_alt    "P 1"
_space_group_IT_number       1

loop_
  _space_group_symop_operation_xyz
  'x, y, z'

loop_
  _atom_site_type_symbol
  _atom_site_label
  _atom_site_symmetry_multiplicity
  _atom_site_fract_x
  _atom_site_fract_y
  _atom_site_fract_z
  _atom_site_occupancy
  C   C1        1.0  0.00000  0.00000  0.00000  1.0000
  H   H1        1.0  0.00000  0.05471  0.07228  1.0000
  H   H2        1.0  0.00000  0.02658  0.90886  1.0000
  C   C2        1.0  0.46410  0.93432  0.01524  1.0000
  H   H3        1.0  0.46410  0.90774  0.10637  1.0000
  H   H4        1.0  0.46410  0.87960  0.94295  1.0000
  C   C3        1.0  0.00000  0.06632  0.55187  1.0000
  H   H5        1.0  0.00000  0.02476  0.63512  1.0000
  H   H6        1.0  0.00000  0.14922  0.55201  1.0000
  C   C4        1.0  0.46410  0.03292  0.48448  1.0000
  H   H7        1.0  0.46410  0.95002  0.48434  1.0000
  H   H8        1.0  0.46410  0.07447  0.40123  1.0000
  C   C5        1.0  0.00000  0.61194  0.17245  1.0000
  H   H9        1.0  0.00000  0.58021  0.26135  1.0000
  H   H10       1.0  0.00000  0.69413  0.15990  1.0000
  C   C6        1.0  0.46410  0.57117  0.11077  1.0000
  H   H11       1.0  0.46410  0.48898  0.12332  1.0000
  H   H12       1.0  0.46410  0.60290  0.02188  1.0000
