data_image0
_chemical_formula_structural       CH2CH2CH2CH2CH2CH2
_chemical_formula_sum              "C6 H12"
_cell_length_a       2.70985
_cell_length_b       12.9774
_cell_length_c       13.214
_cell_angle_alpha    86.9628
_cell_angle_beta     80.2343
_cell_angle_gamma    108.733

_space_group_name_H-M_alt    "P 1"
_space_group_IT_number       1

loop_
  _space_group_symop_operation_xyz
  'x, y, z'

loop_
  _atom_site_type_symbol
  _atom_site_label
  _atom_site_symmetry_multiplicity
  _atom_site_fract_x
  _atom_site_fract_y
  _atom_site_fract_z
  _atom_site_occupancy
  C   C1        1.0  0.00000  0.00000  0.00000  1.0000
  H   H1        1.0  0.00000  0.94760  0.06543  1.0000
  H   H2        1.0  0.00000  0.08390  0.01185  1.0000
  C   C2        1.0  0.46410  0.97455  0.93756  1.0000
  H   H3        1.0  0.46410  0.89065  0.92570  1.0000
  H   H4        1.0  0.46410  0.02695  0.87212  1.0000
  C   C3        1.0  1.00000  0.10116  0.54036  1.0000
  H   H5        1.0  0.00000  0.01727  0.55226  1.0000
  H   H6        1.0  0.00000  0.15360  0.60576  1.0000
  C   C4        1.0  0.46410  0.12658  0.47790  1.0000
  H   H7        1.0  0.46410  0.07414  0.41250  1.0000
  H   H8        1.0  0.46410  0.21047  0.46600  1.0000
  C   C5        1.0  0.00000  0.45480  0.08252  1.0000
  H   H9        1.0  0.00000  0.37185  0.06541  1.0000
  H   H10       1.0  0.00000  0.48119  0.16163  1.0000
  C   C6        1.0  0.46410  0.50050  0.03242  1.0000
  H   H11       1.0  0.46410  0.47411  0.95332  1.0000
  H   H12       1.0  0.46410  0.58345  0.04953  1.0000
